/*--------------------------------*- C++ -*----------------------------------*\
  =========                 |
  \\      /  F ield         | OpenFOAM: The Open Source CFD Toolbox
   \\    /   O peration     | Website:  https://openfoam.org
    \\  /    A nd           | Version:  12
     \\/     M anipulation  |
\*---------------------------------------------------------------------------*/
FoamFile
{
    version     2.0;
    format      ascii;
    class       dictionary;
    object      fvSolution;
}
// * * * * * * * * * * * * * * * * * * * * * * * * * * * * * * * * * * * * * //

solvers
{
    p
    {
        solver           GAMG;
        tolerance        1e-7;
        relTol           0.01;
        smoother         DICGaussSeidel;
    }

    pFinal
    {
        $p;
        relTol          0;
    }

    "(U|k|epsilon)"
    {
        solver          smoothSolver;
        smoother        symGaussSeidel;
        tolerance       1e-06;
        relTol          0.05;
    }

    "(U|k|epsilon)Final"
    {
        $U;
        relTol          0;
    }
}

PIMPLE
{
    nNonOrthogonalCorrectors 0;
    nCorrectors         2;
    nOuterCorrectors    2;

/*
    residualControl
    {
        p   1e-3;
        U   1e-6;
        "(k|epsilon)"   1e-6;
     }

    outerCorrectorResidualControl
    {
        p
        {
                tolerance  1e-3;
                relTol      0;
        }
        U
        {
                tolerance  1e-6;
                relTol      0;
        }
     }
*/
}


relaxationFactors
{
    fields
    {
        p           1;
        pFinal      1;      // Last outer loop
    }
    equations
    {
        "U|k|epsilon"           1;
        "(U|k|epsilon)Final"    1;
    }
}
// ************************************************************************* //
